power-flow-agent/results/ieee14/2026-09-23/gpt-5.6-sol/plan_act_nogate__matched/traces/29_case14-parameterized-033-s0.transcript.txt
==============================================================================
TRANSCRIPT  plan_act_nogate  |  openrouter:openai/gpt-5.6-sol  |  case14  |  case14-parameterized-033-s0  run 0
==============================================================================
date: 2026-09-23   seed: 0   difficulty: parameterized   tool variant: load_split

[system]   (hash 7da5e2a37ec4, from methods/plan_act_nogate/method.json prompt_files)
You are a power system power-flow analysis assistant. You help the user complete power system analysis tasks from natural-language requests.

## What you can do
You complete tasks by calling tool functions:
1. Load an IEEE standard test system (14, 30, 57, 118, 300 buses)
2. Run AC power flow
3. Modify the load at a bus and re-solve
4. Disconnect or reconnect a line and re-solve
5. Query the network status
6. Run an N-1 contingency analysis (disconnect branches one at a time and rank the worst cases)
7. Generate remedial-action suggestions (what-if load shedding or voltage adjustment) to reduce violation risk

## Key rules
- Never fabricate any numerical result. Every voltage, power, loss, or loading value must come from a tool return value.
- If a tool reports an error or a non-converged power flow, say so explicitly and do not report numbers for that state.
- If the request is ambiguous, state the interpretation you are using.
- Bus and line identifiers in the request are MATPOWER 1-based ids; pass them to the tools as given, unless the request itself states a different indexing convention for that identifier (e.g. "(0-based)"), in which case convert it to the MATPOWER 1-based id before calling any tool.
- After a network modification, re-solve before reporting any value.
- Always reply in English.

## Reply format
After each analysis, reply in this structure:
1. One-sentence summary
2. Key numbers (total load, total generation, total losses, voltage range) taken from the tool outputs
3. Violations, if any
4. Suggested next step

[user]   (complete message, stored at run time)
Load the IEEE 14-bus system and set the active load at bus 14 to 15.2 MW.

[tools available to the model]   (function-calling schema, --tool-variant load_split; enum values and defaults as sent)
  load_case(case_name: string* in {case14, case30, case57, case118, case300})  Load IEEE test case.
  run_powerflow()  Run power flow on current case.
  disconnect_line(from_bus: integer*, to_bus: integer*)  Disconnect line/branch between two buses and recompute.
  reconnect_line(from_bus: integer*, to_bus: integer*)  Reconnect line/branch between two buses and recompute.
  get_most_loaded_branch()  Get most loaded branch.
  run_n1_contingency(top_k: integer (default 5), criteria: string in {max_violations, max_overload, min_voltage} (default max_violations), max_candidates: integer (default 0))  Run N-1 contingency analysis.
  recommend_remedial_actions(max_actions: integer (default 5), allow_load_shed: boolean (default True), allow_voltage_control: boolean (default True), include_best_comparison: boolean (default True))  Recommend remedial actions.
  apply_remedial_action(action_index: integer*, confirmed: boolean (default False))  Apply one remedial action by index.
  get_status()  Get current network status.
  generate_plot(plot_type: string* in {voltage_heatmap, flow_diagram, violation_overview, comparison})  Generate one plot.
  set_active_load(bus_id: integer*, p_mw: number*)  Set a bus's active load (MW) and recompute. Use this when the request states only an active-power value. This tool has no reactive-power argument: the bus's present reactive load is always left unchanged. If the request also states a reactive-power value, use set_load instead.
  set_load(bus_id: integer*, p_mw: number*, q_mvar: number*)  Set a bus's active and reactive load (MW, Mvar) and recompute. Use this only when the request states both values. If the request states only an active-power value, use set_active_load instead -- do not invent a reactive-power value here to fill this in.

[planner system prompt]   (hash 76ea681e520a; as assembled today from methods/plan_act; the planning call sends this plus the request)
You are the planner of a power-system analysis agent. You cannot call tools yourself. Given the user's request, output ONLY a JSON object of the form
{"plan": [{"tool": "<tool_name>", "args": {...}}, ...]}
listing, in execution order, every tool call needed to answer the request. Use only the tools below with exactly these argument names (* = required); where an argument lists allowed values, use one of them verbatim. Bus and line identifiers in the request are MATPOWER 1-based ids; pass them to the tools as given, unless the request itself states a different indexing convention for that identifier (e.g. "(0-based)"), in which case convert it to the MATPOWER 1-based id. Do not include explanations, markdown, or any text outside the JSON.

Available tools:
- load_case(case_name: string in {case14, case30, case57, case118, case300}*): Load IEEE test case.
- run_powerflow((none)): Run power flow on current case.
- disconnect_line(from_bus: integer*, to_bus: integer*): Disconnect line/branch between two buses and recompute.
- reconnect_line(from_bus: integer*, to_bus: integer*): Reconnect line/branch between two buses and recompute.
- get_most_loaded_branch((none)): Get most loaded branch.
- run_n1_contingency(top_k: integer, criteria: string in {max_violations, max_overload, min_voltage}, max_candidates: integer): Run N-1 contingency analysis.
- recommend_remedial_actions(max_actions: integer, allow_load_shed: boolean, allow_voltage_control: boolean, include_best_comparison: boolean): Recommend remedial actions.
- apply_remedial_action(action_index: integer*, confirmed: boolean): Apply one remedial action by index.
- get_status((none)): Get current network status.
- generate_plot(plot_type: string in {voltage_heatmap, flow_diagram, violation_overview, comparison}*): Generate one plot.
- set_active_load(bus_id: integer*, p_mw: number*): Set a bus's active load (MW) and recompute. Use this when the request states only an active-power value. This tool has no reactive-power argument: the bus's present reactive load is always left unchanged. If the request also states a reactive-power value, use set_load instead.
- set_load(bus_id: integer*, p_mw: number*, q_mvar: number*): Set a bus's active and reactive load (MW, Mvar) and recompute. Use this only when the request states both values. If the request states only an active-power value, use set_active_load instead -- do not invent a reactive-power value here to fill this in.

[planner output]
[
 {
  "tool": "load_case",
  "args": {
   "case_name": "case14"
  }
 },
 {
  "tool": "set_active_load",
  "args": {
   "bus_id": 14,
   "p_mw": 15.2
  }
 }
]

--- round 1 ---
[assistant]   (604 in / 44 out tokens, 1.6 s)
{"plan":[{"tool":"load_case","args":{"case_name":"case14"}},{"tool":"set_active_load","args":{"bus_id":14,"p_mw":15.2}}]}

--- round 2 ---
[tool load_case]   (gate: not applied)
{"case_name": "case14", "n_buses": 14, "n_generators": 5, "n_lines": 20, "n_loads": 11, "total_load_mw": 262.1627562374857, "total_gen_capacity_mw": 772.4000000000001}
[tool set_active_load]   (gate: pass)
{"case_name": "case14", "converged": true, "bus_voltages": [{"bus_id": 1, "vm_pu": 1.06, "va_deg": 0.0, "is_violation": true, "violation_type": "overvoltage"}, {"bus_id": 2, "vm_pu": 1.045, "va_deg": -4.947876004915647, "is_violation": false, "violation_type": null}, {"bus_id": 3, "vm_pu": 1.0099999999999998, "va_deg": -12.941792935136215, "is_violation": false, "violation_type": null}, {"bus_id": 4, "vm_pu": 1.0184455917083939, "va_deg": -10.286597991718601, "is_violation": false, "violation_type": null}, {"bus_id": 5, "vm_pu": 1.0201140724174382, "va_deg": -8.732001867530983, "is_violation": false, "violation_type": null}, {"bus_id": 6, "vm_pu": 1.0700000000000007, "va_deg": -14.064375311501758, "is_violation": true, "violation_type": "overvoltage"}, {"bus_id": 7, "vm_pu": 1.062821124959398, "va_deg": -13.1864325603359, "is_violation": true, "violation_type": "overvoltage"}, {"bus_id": 8, "vm_pu": 1.0900000000000005, "va_deg": -13.186432560335899, "is_violation": true, "violation_type": "overvoltage"}, {"bus_id": 9, "vm_pu": 1.0582039908293694, "va_deg": -14.68716625512088, "is_violation": true, "violation_type": "overvoltage"}, {"bus_id": 10, "vm_pu": 1.0528871473589478, "va_deg": -14.862407994721957, "is_violation": true, "violation_type": "overvoltage"}, {"bus_id": 11, "vm_pu": 1.0582002908945627, "va_deg": -14.582796500988302, "is_violation": true, "violation_type": "overvoltage"}, {"bus_id": 12, "vm_pu": 1.0557595125470267, "va_deg": -14.883762760114193, "is_violation": true, "violation_type": "overvoltage"}, {"bus_id": 13, "vm_pu": 1.0513411134365451, "va_deg": -14.953475303388718, "is_violation": true, "violation_type": "overvoltage"}, {"bus_id": 14, "vm_pu": 1.0365147269210357, "va_deg": -15.811343633355579, "is_violation": false, "violation_type": null}], "line_flows": [{"line_id": 0, "from_bus": 1, "to_bus": 2, "p_from_mw": 155.8333765429892, "q_from_mvar": -20.15871037693924, "loading_percent": 1.4973493335988952, "is_violation": false}, {"line_id": 1, "from_bus": 1, "to_bus": 5, "p_from_mw": 75.1440361702748, "q_from_mvar": 3.6079326030007373, "loading_percent": 0.7173649448834456, "is_violation": false}, {"line_id": 2, "from_bus": 2, "to_bus": 3, "p_from_mw": 75.50325002002677, "q_from_mvar": 3.3426675404825614, "loading_percent": 0.7308365584123541, "is_violation": false}, {"line_id": 3, "from_bus": 2, "to_bus": 4, "p_from_mw": 56.11608176732614, "q_from_mvar": -1.9942135382899426, "loading_percent": 0.5427626026818243, "is_violation": false}, {"line_id": 4, "from_bus": 2, "to_bus": 5, "p_from_mw": 41.360960834256694, "q_from_mvar": 0.8568694332037068, "loading_percent": 0.4010776254792129, "is_violation": false}, {"line_id": 5, "from_bus": 3, "to_bus": 4, "p_from_mw": -25.62845560254672, "q_from_mvar": 5.046668784177808, "loading_percent": 0.2637817249885099, "is_violation": false}, {"line_id": 6, "from_bus": 4, "to_bus": 5, "p_from_mw": -61.72143973662764, "q_from_mvar": 16.440173579288732, "loading_percent": 0.6335008921101585, "is_violation": false}, {"line_id": 7, "from_bus": 6, "to_bus": 11, "p_from_mw": 6.6717395784874025, "q_from_mvar": 3.185127871544665, "loading_percent": 0.06979181829751097, "is_violation": false}, {"line_id": 8, "from_bus": 6, "to_bus": 12, "p_from_mw": 7.473488365246099, "q_from_mvar": 2.4108415285063667, "loading_percent": 0.07413120299470935, "is_violation": false}, {"line_id": 9, "from_bus": 6, "to_bus": 13, "p_from_mw": 16.881786897067727, "q_from_mvar": 6.857408366320524, "loading_percent": 0.17201342819469706, "is_violation": false}, {"line_id": 10, "from_bus": 9, "to_bus": 10, "p_from_mw": 5.729694373994594, "q_from_mvar": 4.507574620740811, "loading_percent": 0.0695884795804125, "is_violation": false}, {"line_id": 11, "from_bus": 9, "to_bus": 14, "p_from_mw": 9.816713804895107, "q_from_mvar": 3.951756327006111, "loading_percent": 0.10101221148061822, "is_violation": false}, {"line_id": 12, "from_bus": 10, "to_bus": 11, "p_from_mw": -3.443694378577243, "q_from_mvar": -1.4345405167229672, "loading_percent": 0.035789433081538036, "is_violation": false}, {"line_id": 13, "from_bus": 12, "to_bus": 13, "p_from_mw": 1.4654071932976418, "q_from_mvar": 0.7145341753931245, "loading_percent": 0.015598234261238726, "is_violation": false}, {"line_id": 14, "from_bus": 13, "to_bus": 14, "p_from_mw": 5.563170824916638, "q_from_mvar": 1.7816812797804213, "loading_percent": 0.056123713754403046, "is_violation": false}, {"line_id": 100000, "from_bus": 4, "to_bus": 7, "p_from_mw": 26.774955005803285, "q_from_mvar": -10.011580176156485, "loading_percent": 0.2835127130664578, "is_violation": false}, {"line_id": 100001, "from_bus": 4, "to_bus": 9, "p_from_mw": 15.3435958637319, "q_from_mvar": -0.7666528431652468, "loading_percent": 0.15236863284100802, "is_violation": false}, {"line_id": 100002, "from_bus": 5, "to_bus": 6, "p_from_mw": 43.18693628306867, "q_from_mvar": 12.670320666662906, "loading_percent": 0.4456543081075401, "is_violation": false}, {"line_id": 100003, "from_bus": 7, "to_bus": 8, "p_from_mw": -3.2840820819257893e-15, "q_from_mvar": -16.398684385912134, "loading_percent": 0.1558524503657218, "is_violation": false}, {"line_id": 100004, "from_bus": 7, "to_bus": 9, "p_from_mw": 26.774955005399796, "q_from_mvar": 4.811349024688934, "loading_percent": 0.25854394140197745, "is_violation": false}], "total_generation_mw": 274.90817367271575, "total_load_mw": 261.40305046594284, "total_loss_mw": 13.505123211905513, "voltage_violations": [{"bus_id": 1, "vm_pu": 1.06, "va_deg": 0.0, "is_violation": true, "violation_type": "overvoltage"}, {"bus_id": 6, "vm_pu": 1.0700000000000007, "va_deg": -14.064375311501758, "is_violation": true, "violation_type": "overvoltage"}, {"bus_id": 7, "vm_pu": 1.062821124959398, "va_deg": -13.1864325603359, "is_violation": true, "violation_type": "overvoltage"}, {"bus_id": 8, "vm_pu": 1.0900000000000005, "va_deg": -13.186432560335899, "is_violation": true, "violation_type": "overvoltage"}, {"bus_id": 9, "vm_pu": 1.0582039908293694, "va_deg": -14.68716625512088, "is_violation": true, "violation_type": "overvoltage"}, {"bus_id": 10, "vm_pu": 1.0528871473589478, "va_deg": -14.862407994721957, "is_violation": true, "violation_type": "overvoltage"}, {"bus_id": 11, "vm_pu": 1.0582002908945627, "va_deg": -14.582796500988302, "is_violation": true, "violation_type": "overvoltage"}, {"bus_id": 12, "vm_pu": 1.0557595125470267, "va_deg": -14.883762760114193, "is_violation": true, "violation_type": "overvoltage"}, {"bus_id": 13, "vm_pu": 1.0513411134365451, "va_deg": -14.953475303388718, "is_violation": true, "violation_type": "overvoltage"}], "thermal_violations": [], "summary_text": "", "solver_backend": "pandapower", "llm_prompt": null, "llm_response": null, "resolved_bus_id": 14, "assumption": "reactive load at this bus is unchanged from its present value"}

--- round 3 ---
[assistant final]   (3382 in / 250 out tokens, 3.7 s)
The IEEE 14-bus system was loaded, bus 14 active load was set to **15.2 MW** with reactive load unchanged, and the AC power flow converged.

**Key numbers**
- Total load: **261.403 MW**
- Total generation: **274.908 MW**
- Total active-power losses: **13.505 MW**
- Voltage range: **1.010 p.u.** at bus 3 to **1.090 p.u.** at bus 8

**Violations**
- Overvoltage at buses **1, 6, 7, 8, 9, 10, 11, 12, and 13**
- No thermal violations

**Suggested next step**
- Review generator voltage setpoints or perform remedial-action analysis to reduce the overvoltages.
